
  Mrv16c5 04212613492D          

  0  0  0     0  0            999 V3000
M  V30 BEGIN CTAB
M  V30 COUNTS 6 6 0 0 0
M  V30 BEGIN ATOM
M  V30 1 C -5.125 0.915 0 0
M  V30 2 C -6.4587 0.145 0 0
M  V30 3 C -6.4587 -1.395 0 0
M  V30 4 C -5.125 -2.165 0 0
M  V30 5 C -3.7913 -1.395 0 0
M  V30 6 C -3.7913 0.145 0 0
M  V30 END ATOM
M  V30 BEGIN BOND
M  V30 1 1 1 2
M  V30 2 2 2 3
M  V30 3 1 3 4
M  V30 4 2 4 5
M  V30 5 1 5 6
M  V30 6 2 1 6
M  V30 END BOND
M  V30 END CTAB
M  END
