
  Mrv16c5 04212613052D          

 13 13  0  0  1  0            999 V2000
    0.0049   -0.8257    0.0000 O   0  0  0  0  0  0  0  0  0  0  0  0
    0.0000   -2.4673    0.0000 O   0  0  0  0  0  0  0  0  0  0  0  0
    2.8454    0.0000    0.0000 O   0  0  0  0  0  0  0  0  0  0  0  0
    4.2631   -0.8208    0.0000 N   0  0  0  0  0  0  0  0  0  0  0  0
    2.1390   -1.2336    0.0000 C   0  0  0  0  0  0  0  0  0  0  0  0
    0.7114   -1.2336    0.0000 C   0  0  0  0  0  0  0  0  0  0  0  0
    0.7114   -2.0644    0.0000 C   0  0  0  0  0  0  0  0  0  0  0  0
    1.4227   -0.8208    0.0000 C   0  0  0  0  0  0  0  0  0  0  0  0
    2.8454   -0.8208    0.0000 C   0  0  2  0  0  0  0  0  0  0  0  0
    2.1390   -2.0644    0.0000 C   0  0  0  0  0  0  0  0  0  0  0  0
    1.4227   -2.4822    0.0000 C   0  0  0  0  0  0  0  0  0  0  0  0
    3.5567   -1.2287    0.0000 C   0  0  0  0  0  0  0  0  0  0  0  0
    4.9744   -1.2237    0.0000 C   0  0  0  0  0  0  0  0  0  0  0  0
  1  6  1  0  0  0  0
  2  7  1  0  0  0  0
  9  3  1  1  0  0  0
  4 12  1  0  0  0  0
  4 13  1  0  0  0  0
  5  8  1  0  0  0  0
  5  9  1  0  0  0  0
  5 10  2  0  0  0  0
  6  7  1  0  0  0  0
  6  8  2  0  0  0  0
  7 11  2  0  0  0  0
  9 12  1  0  0  0  0
 10 11  1  0  0  0  0
M  END
$$$$
