
  Mrv16c5 04212613362D          

  0  0  0     0  0            999 V3000
M  V30 BEGIN CTAB
M  V30 COUNTS 13 13 0 0 1
M  V30 BEGIN ATOM
M  V30 1 O 0.0092 -1.5414 0 0
M  V30 2 O 0 -4.6057 0 0
M  V30 3 O 5.3113 0 0 0
M  V30 4 N 7.9578 -1.5322 0 0
M  V30 5 C 3.9928 -2.3028 0 0
M  V30 6 C 1.3279 -2.3028 0 0
M  V30 7 C 1.3279 -3.8535 0 0
M  V30 8 C 2.6557 -1.5322 0 0
M  V30 9 C 5.3113 -1.5322 0 0 CFG=2
M  V30 10 C 3.9928 -3.8535 0 0
M  V30 11 C 2.6557 -4.6335 0 0
M  V30 12 C 6.6392 -2.2936 0 0
M  V30 13 C 9.2856 -2.2843 0 0
M  V30 END ATOM
M  V30 BEGIN BOND
M  V30 1 1 1 6
M  V30 2 1 2 7
M  V30 3 1 9 3 CFG=1
M  V30 4 1 4 12
M  V30 5 1 4 13
M  V30 6 1 5 8
M  V30 7 1 5 9
M  V30 8 2 5 10
M  V30 9 1 6 7
M  V30 10 2 6 8
M  V30 11 2 7 11
M  V30 12 1 9 12
M  V30 13 1 10 11
M  V30 END BOND
M  V30 END CTAB
M  END
