
  Mrv16c5 04212613512D          

  0  0  0     0  0            999 V3000
M  V30 BEGIN CTAB
M  V30 COUNTS 25 28 0 0 1
M  V30 BEGIN ATOM
M  V30 1 C 3.9986 -2.2957 0 0
M  V30 2 C 3.9986 -3.837 0 0 CFG=2
M  V30 3 C 2.6622 -3.0718 0 0
M  V30 4 C 1.3257 -3.837 0 0
M  V30 5 C 1.3257 -5.3783 0 0
M  V30 6 C 2.6622 -6.1435 0 0
M  V30 7 C 3.9986 -5.3783 0 0
M  V30 8 C 5.3244 -6.1435 0 0
M  V30 9 C 6.6608 -5.3783 0 0
M  V30 10 C 6.6608 -3.837 0 0 CFG=1
M  V30 11 C 7.9866 -3.0718 0 0 CFG=2
M  V30 12 C 9.4416 -3.5352 0 0
M  V30 13 C 10.3469 -2.2957 0 0
M  V30 14 C 9.4416 -1.0563 0 0 CFG=1
M  V30 15 C 7.9866 -1.5305 0 0 CFG=2
M  V30 16 C 8.1482 0 0 0
M  V30 17 C 6.6608 -0.7652 0 0
M  V30 18 C 5.3244 -1.5305 0 0
M  V30 19 C 5.3244 -3.0718 0 0 CFG=2
M  V30 20 H 5.3244 -4.6023 0 0
M  V30 21 O 10.778 -0.291 0 0
M  V30 22 H 9.4955 -2.5975 0 0
M  V30 23 H 8.1482 -4.6023 0 0
M  V30 24 H 6.6608 -2.2957 0 0
M  V30 25 O 0 -6.1435 0 0
M  V30 END ATOM
M  V30 BEGIN BOND
M  V30 1 1 2 1 CFG=1
M  V30 2 1 2 3
M  V30 3 1 2 7
M  V30 4 1 2 19
M  V30 5 1 3 4
M  V30 6 1 4 5
M  V30 7 1 5 6
M  V30 8 2 5 25
M  V30 9 2 6 7
M  V30 10 1 7 8
M  V30 11 1 8 9
M  V30 12 1 9 10
M  V30 13 1 10 11
M  V30 14 1 10 19
M  V30 15 1 10 24 CFG=1
M  V30 16 1 11 12
M  V30 17 1 11 15
M  V30 18 1 11 23 CFG=3
M  V30 19 1 12 13
M  V30 20 1 13 14
M  V30 21 1 14 15
M  V30 22 1 14 21
M  V30 23 1 14 22 CFG=3
M  V30 24 1 15 16 CFG=1
M  V30 25 1 15 17
M  V30 26 1 17 18
M  V30 27 1 18 19
M  V30 28 1 19 20 CFG=3
M  V30 END BOND
M  V30 END CTAB
M  END
